Circuit: * C:\Users\Ekj\Documents\Academics\Electrical Computer Engineering\VLSI Lab\Lab1\FA version2.asc

Fatal Error: No analysis request found.
